Input file: 	filename.txt
Output file: 	output.txt
Line length: 	16